data_image0
_chemical_formula_structural       PdCuAuCuAuPdAgCuPdPtAgPtAuPdPtAu2CuAgPtAgPtAu2PdPt2AgCuPdAgPdCu2PtAgCHO
_chemical_formula_sum              "Pd7 Cu7 Au7 Ag7 Pt8 C1 H1 O1"
_cell_length_a       8.506494577674166
_cell_length_b       8.506494577674165
_cell_length_c       29.6875747783512
_cell_angle_alpha    90.0
_cell_angle_beta     90.0
_cell_angle_gamma    59.99999999999999

_space_group_name_H-M_alt    "P 1"
_space_group_IT_number       1

loop_
  _space_group_symop_operation_xyz
  'x, y, z'

loop_
  _atom_site_type_symbol
  _atom_site_label
  _atom_site_symmetry_multiplicity
  _atom_site_fract_x
  _atom_site_fract_y
  _atom_site_fract_z
  _atom_site_occupancy
  Pd  Pd1       1.0  0.0  0.0  0.33684125681065097  1.0000
  Cu  Cu1       1.0  0.3333333333333333  0.0  0.33684125681065097  1.0000
  Au  Au1       1.0  0.6666666666666666  0.0  0.33684125681065097  1.0000
  Cu  Cu2       1.0  0.0  0.3333333333333333  0.33684125681065097  1.0000
  Au  Au2       1.0  0.33333333333333326  0.3333333333333333  0.33684125681065097  1.0000
  Pd  Pd2       1.0  0.6666666666666666  0.3333333333333333  0.33684125681065097  1.0000
  Ag  Ag1       1.0  0.0  0.6666666666666666  0.33684125681065097  1.0000
  Cu  Cu3       1.0  0.3333333333333333  0.6666666666666666  0.33684125681065097  1.0000
  Pd  Pd3       1.0  0.6666666666666665  0.6666666666666666  0.33684125681065097  1.0000
  Pt  Pt1       1.0  0.11111111111111109  0.1111111111111111  0.41482588831846523  1.0000
  Ag  Ag2       1.0  0.4444444444444443  0.1111111111111111  0.41482588831846523  1.0000
  Pt  Pt2       1.0  0.7777777777777777  0.1111111111111111  0.41482588831846523  1.0000
  Au  Au3       1.0  0.11111111111111108  0.4444444444444444  0.41482588831846523  1.0000
  Pd  Pd4       1.0  0.44444444444444436  0.4444444444444444  0.41482588831846523  1.0000
  Pt  Pt3       1.0  0.7777777777777777  0.4444444444444444  0.41482588831846523  1.0000
  Au  Au4       1.0  0.11111111111111108  0.7777777777777778  0.41482588831846523  1.0000
  Au  Au5       1.0  0.44444444444444436  0.7777777777777778  0.41482588831846523  1.0000
  Cu  Cu4       1.0  0.7777777777777777  0.7777777777777778  0.41482588831846523  1.0000
  Ag  Ag3       1.0  0.8868575504204446  0.21865935236158  0.496078421669336  1.0000
  Pt  Pt4       1.0  0.22037533252194075  0.21635703797348715  0.4964621818961368  1.0000
  Ag  Ag4       1.0  0.5529613415883691  0.2191422479050287  0.4957592918740487  1.0000
  Pt  Pt5       1.0  0.883674259845092  0.5601388888369314  0.4940994261466747  1.0000
  Au  Au6       1.0  0.21838210907467012  0.5504371152162613  0.4966757361691451  1.0000
  Au  Au7       1.0  0.5579725966398873  0.5526165298483681  0.4962635530724867  1.0000
  Pd  Pd5       1.0  0.8836100380137023  0.8873246563589667  0.49374685809822083  1.0000
  Pt  Pt6       1.0  0.22129732229178217  0.8929187528550181  0.49632035010177566  1.0000
  Pt  Pt7       1.0  0.5564584790329333  0.8872514904845843  0.4955166280547337  1.0000
  Ag  Ag5       1.0  0.9908700720494615  0.0015244070834819965  0.5780031131341394  1.0000
  Cu  Cu5       1.0  0.33210299498036683  0.9989903310784688  0.5679868893928586  1.0000
  Pd  Pd6       1.0  0.658042143349051  0.004218183428244202  0.5726923752981373  1.0000
  Ag  Ag6       1.0  0.9936019698414614  0.3380571324128558  0.5752783723179261  1.0000
  Pd  Pd7       1.0  0.3288497884064033  0.3403681713968076  0.5826980088154989  1.0000
  Cu  Cu6       1.0  0.6462782173541207  0.3408569536700749  0.5724914732561205  1.0000
  Cu  Cu7       1.0  0.9925414735578602  0.6744683712823849  0.5682505211865126  1.0000
  Pt  Pt8       1.0  0.32242929475331966  0.6714911014120161  0.5719070072894187  1.0000
  Ag  Ag7       1.0  0.6586163938991761  0.6710174894410702  0.5787418851935529  1.0000
  C   C1        1.0  0.33855344785044544  0.3304651072129369  0.6492582679959178  1.0000
  H   H1        1.0  0.20922197559969086  0.34104299211830585  0.6618172865349005  1.0000
  O   O1        1.0  0.4556820396578736  0.31606631610122277  0.6745551008206191  1.0000
