data_image0
_chemical_formula_structural       PtAuPtCuAgPtAgAlAgAuCuPtAlAu2Ag2Cu3AgAl2AuCuAlCuPtCuAu2Pt2AgAl2CHO
_chemical_formula_sum              "Pt7 Au7 Cu8 Ag7 Al7 C1 H1 O1"
_cell_length_a       8.548921
_cell_length_b       8.548920957026624
_cell_length_c       29.722216
_cell_angle_alpha    90.0
_cell_angle_beta     90.0
_cell_angle_gamma    60.00000370317908

_space_group_name_H-M_alt    "P 1"
_space_group_IT_number       1

loop_
  _space_group_symop_operation_xyz
  'x, y, z'

loop_
  _atom_site_type_symbol
  _atom_site_label
  _atom_site_symmetry_multiplicity
  _atom_site_fract_x
  _atom_site_fract_y
  _atom_site_fract_z
  _atom_site_occupancy
  Pt  Pt1       1.0  0.0  0.0  0.3364486685649549  1.0000
  Au  Au1       1.0  0.3333332943420579  0.0  0.3364486685649549  1.0000
  Pt  Pt2       1.0  0.6666667056579421  0.0  0.3364486685649549  1.0000
  Cu  Cu1       1.0  0.0  0.3333333333333333  0.3364486685649549  1.0000
  Ag  Ag1       1.0  0.33333329434205794  0.3333333333333333  0.3364486685649549  1.0000
  Pt  Pt3       1.0  0.666666705657942  0.3333333333333333  0.3364486685649549  1.0000
  Ag  Ag2       1.0  0.0  0.6666666666666666  0.3364486685649549  1.0000
  Al  Al1       1.0  0.3333334113158842  0.6666666666666666  0.3364486685649549  1.0000
  Ag  Ag3       1.0  0.6666667056579421  0.6666666666666666  0.3364486685649549  1.0000
  Au  Au2       1.0  0.1111111206256393  0.11111106608786583  0.41473092046703386  1.0000
  Cu  Cu2       1.0  0.44444441496769727  0.11111106608786583  0.41473092046703386  1.0000
  Pt  Pt4       1.0  0.7777778262835814  0.11111106608786583  0.41473092046703386  1.0000
  Al  Al2       1.0  0.11111112062563928  0.4444443994211992  0.41473092046703386  1.0000
  Au  Au3       1.0  0.44444453194152345  0.4444443994211992  0.41473092046703386  1.0000
  Au  Au4       1.0  0.7777778262835814  0.4444443994211992  0.41473092046703386  1.0000
  Ag  Ag4       1.0  0.11111112062563937  0.7777777327545324  0.41473092046703386  1.0000
  Ag  Ag5       1.0  0.44444453194152345  0.7777777327545324  0.41473092046703386  1.0000
  Cu  Cu3       1.0  0.7777778262835815  0.7777777327545324  0.41473092046703386  1.0000
  Cu  Cu4       1.0  0.8742360964387299  0.21325282636798965  0.4903760540600338  1.0000
  Cu  Cu5       1.0  0.22989587600038497  0.23251552660380792  0.48724035246900843  1.0000
  Ag  Ag6       1.0  0.5590000654293841  0.21642818078759973  0.49326291821578855  1.0000
  Al  Al3       1.0  0.8663238949940849  0.569713475218688  0.4864697840833941  1.0000
  Al  Al4       1.0  0.22103858705372345  0.5463493824544142  0.4923171273635856  1.0000
  Au  Au5       1.0  0.5165964848844318  0.6027124974488703  0.4965339731061776  1.0000
  Cu  Cu6       1.0  0.8871842164188818  0.8806879047617889  0.4881216461114475  1.0000
  Al  Al5       1.0  0.2132653326684641  0.9224167541580881  0.4903475232129395  1.0000
  Cu  Cu7       1.0  0.5604991229939275  0.8974542461400109  0.48893918273119347  1.0000
  Pt  Pt5       1.0  0.04515370794658026  0.966240535157099  0.5591240235923189  1.0000
  Cu  Cu8       1.0  0.3345177247394082  0.0067183686601473905  0.5617722447074607  1.0000
  Au  Au6       1.0  0.655201846529156  0.9852526810329539  0.5706128372124071  1.0000
  Au  Au7       1.0  0.9945747008270589  0.331105087901358  0.5579727635382234  1.0000
  Pt  Pt6       1.0  0.3347300654425752  0.3448515401259093  0.571375768213245  1.0000
  Pt  Pt7       1.0  0.6470082128292024  0.3803254451256911  0.5710408672085554  1.0000
  Ag  Ag7       1.0  0.9887468751723688  0.6674080644466335  0.5687342424266079  1.0000
  Al  Al6       1.0  0.323772143848898  0.6594967598796421  0.5742739033993967  1.0000
  Al  Al7       1.0  0.6652079581150021  0.667149000693313  0.5719683552531885  1.0000
  C   C1        1.0  0.32591815153788384  0.3333603472804992  0.6402052592579235  1.0000
  H   H1        1.0  0.20871395776576523  0.318803746780444  0.6513035569084082  1.0000
  O   O1        1.0  0.4274794717092274  0.33963325595188165  0.6675103902077827  1.0000
