data_image0
_chemical_formula_structural       CoZn2GaCuNiCo2CuNiZnCuNiCoZnNi2CuCoZnGaCoGa2NiCu2CoZnGaCuNiGa2ZnCoCHO
_chemical_formula_sum              "Co8 Zn7 Ga7 Cu7 Ni7 C1 H1 O1"
_cell_length_a       8.061017305526642
_cell_length_b       8.06101730552664
_cell_length_c       29.323844108761733
_cell_angle_alpha    90.0
_cell_angle_beta     90.0
_cell_angle_gamma    59.99999999999999

_space_group_name_H-M_alt    "P 1"
_space_group_IT_number       1

loop_
  _space_group_symop_operation_xyz
  'x, y, z'

loop_
  _atom_site_type_symbol
  _atom_site_label
  _atom_site_symmetry_multiplicity
  _atom_site_fract_x
  _atom_site_fract_y
  _atom_site_fract_z
  _atom_site_occupancy
  Co  Co1       1.0  0.0  0.0  0.34101940942361236  1.0000
  Zn  Zn1       1.0  0.3333333333333333  0.0  0.34101940942361236  1.0000
  Zn  Zn2       1.0  0.6666666666666666  0.0  0.34101940942361236  1.0000
  Ga  Ga1       1.0  0.0  0.3333333333333333  0.34101940942361236  1.0000
  Cu  Cu1       1.0  0.3333333333333333  0.3333333333333333  0.34101940942361236  1.0000
  Ni  Ni1       1.0  0.6666666666666666  0.3333333333333333  0.34101940942361236  1.0000
  Co  Co2       1.0  0.0  0.6666666666666666  0.34101940942361236  1.0000
  Co  Co3       1.0  0.3333333333333333  0.6666666666666666  0.34101940942361236  1.0000
  Cu  Cu2       1.0  0.6666666666666666  0.6666666666666666  0.34101940942361236  1.0000
  Ni  Ni2       1.0  0.11111111111111112  0.1111111111111111  0.4158367155988641  1.0000
  Zn  Zn3       1.0  0.4444444444444445  0.1111111111111111  0.4158367155988641  1.0000
  Cu  Cu3       1.0  0.7777777777777778  0.1111111111111111  0.4158367155988641  1.0000
  Ni  Ni3       1.0  0.11111111111111113  0.4444444444444444  0.4158367155988641  1.0000
  Co  Co4       1.0  0.4444444444444445  0.4444444444444444  0.4158367155988641  1.0000
  Zn  Zn4       1.0  0.7777777777777778  0.4444444444444444  0.4158367155988641  1.0000
  Ni  Ni4       1.0  0.11111111111111119  0.7777777777777777  0.4158367155988641  1.0000
  Ni  Ni5       1.0  0.44444444444444453  0.7777777777777777  0.4158367155988641  1.0000
  Cu  Cu4       1.0  0.7777777777777779  0.7777777777777777  0.4158367155988641  1.0000
  Co  Co5       1.0  0.8828199337042116  0.21872327860672633  0.48979665154157026  1.0000
  Zn  Zn5       1.0  0.20336536536230854  0.22494937147956176  0.4877338923492867  1.0000
  Ga  Ga2       1.0  0.5694240584889185  0.21815913887137073  0.48918263637884324  1.0000
  Co  Co6       1.0  0.8838750772530314  0.557267354491191  0.48865114974162527  1.0000
  Ga  Ga3       1.0  0.2002845659167354  0.5661629091769829  0.4830377696312548  1.0000
  Ga  Ga4       1.0  0.5550944687092612  0.5748472545527648  0.4851656894289809  1.0000
  Ni  Ni6       1.0  0.8879205126773857  0.8868841900329457  0.4874612821896734  1.0000
  Cu  Cu5       1.0  0.21161624422780959  0.8939983359398691  0.48603208469873976  1.0000
  Cu  Cu6       1.0  0.5555748684237724  0.8973458114676108  0.48702139800374555  1.0000
  Co  Co7       1.0  0.9754742281549409  0.01409078996252437  0.5548174365062042  1.0000
  Zn  Zn6       1.0  0.3193399992750869  0.9997345274426077  0.5653690703136409  1.0000
  Ga  Ga5       1.0  0.6626479442478461  0.988961534518459  0.566922223977364  1.0000
  Cu  Cu7       1.0  0.0016038457357019982  0.330818038697954  0.5604034359374863  1.0000
  Ni  Ni7       1.0  0.34559256885136463  0.3270427708559324  0.565386201477707  1.0000
  Ga  Ga6       1.0  0.6822918235617517  0.3430575298021406  0.5716824456209384  1.0000
  Ga  Ga7       1.0  0.0010646065344355209  0.6583772658060687  0.5641001257031527  1.0000
  Zn  Zn7       1.0  0.32912235074378077  0.6733546787089104  0.5672355371378992  1.0000
  Co  Co8       1.0  0.6756453778022713  0.6590882092855118  0.5543715863547919  1.0000
  C   C1        1.0  0.3357206389308445  0.3302767875019368  0.6315507674046323  1.0000
  H   H1        1.0  0.20849157109330005  0.3290121578760944  0.646572772593224  1.0000
  O   O1        1.0  0.4529031514620602  0.3348312179074575  0.656978232995134  1.0000
